33
Lattice="-6.815208142375564 -2.220446049250313e-16 0.0 -0.015633100634291353 -5.561380165377557 1.4495783466131372e-15 -4.9527771270904014e-15 2.3247100242968298e-15 27.323685057745415" Properties=species:S:1:pos:R:3 pbc="T T T"
Pt     -2.25193780      -2.76691324      11.13915549 
Pt     -4.62126022      -4.18324712      10.60010125 
Pt     -6.81288103      -0.02552814       9.76925109 
Pt     -2.22842605      -1.40214887       8.80341193 
Pt     -4.53755386      -2.82750399       8.05593413 
Pt     -6.80760604      -4.19192793       7.25013916 
Pt     -2.26131398      -0.01280105       6.42910237 
Pt     -4.53826106      -1.40154596       5.62546457 
Pt     -6.81520814      -2.79029087       4.82182677 
Pt     -2.27694708      -4.17903578       4.01818898 
Pt     -4.53826106      -0.00640052       3.21455118 
Pt     -6.81520814      -1.39514543       2.41091339 
Pt     -2.27694708      -2.78389034       1.60727559 
Pt     -4.55389416      -4.17263525       0.80363780 
Pt      0.00000000       0.00000000       0.00000000 
Rh     -2.38583202      -0.01086912      11.20015707 
Rh     -4.56140848      -1.42541304      10.36949416 
Rh     -6.78053298      -2.80357196       9.71328375 
Rh     -2.25261796      -4.20364249       8.82240885 
Rh     -4.53971958      -0.02346234       8.03016270 
Rh     -6.78966451      -1.40963055       7.25493866 
Rh     -2.26913053      -2.79349113       6.42910237 
Rh     -4.54607761      -4.18223604       5.62546457 
Rh     -6.80739159      -0.00960078       4.82182677 
Rh     -2.26913053      -1.39834570       4.01818898 
Rh     -4.54607761      -2.78709061       3.21455118 
Rh     -6.82302469      -4.17583552       2.41091339 
Rh     -2.26913053      -0.00320026       1.60727559 
Rh     -4.54607761      -1.39194517       0.80363780 
Rh     -0.00781655      -2.78069008       0.00000000 
C    -10.81445933      -5.04199199      12.36410531 
H    -10.56742924      -4.30914420      13.13405381 
H    -11.45394012      -5.83606205      12.75606903 
