48
Lattice="7.310986458748231 0.0 0.0 0.0 8.954093170165251 0.0 0.0 0.0 28.06251223833576" Properties=species:S:1:pos:R:3 pbc="T T T"
Ag      4.91509852       1.49258682      20.03156029 
Ag      4.89028972       4.50001609      19.91295787 
Ag      4.89028825       7.43893296      19.91297183 
Ag      2.34465508       0.03973899      19.22306729 
Ag      2.34486217       2.94503574      19.22268287 
Ag      2.44836841       5.96946088      19.15663687 
Ag     -0.04815967       1.49237501      18.37908922 
Ag      0.03174886       4.48219370      18.35388492 
Ag      0.03171461       7.45661984      18.35396044 
Ag      4.90472800       0.00968967      17.44743960 
Ag      4.90478105       2.97507665      17.44731564 
Ag      4.92132003       5.96939173      17.42689707 
Ag      2.43124827       1.49235121      16.58860235 
Ag      2.44713059       4.44826235      16.63567034 
Ag      2.44711619       7.49056272      16.63573250 
Ag      0.01117465      -0.00232288      15.73831075 
Ag      0.01119571       2.98699761      15.73830530 
Ag      0.02469871       5.96940519      15.72435747 
Ag      4.87399097       1.49234886      14.89286414 
Ag      4.87399097       4.47704659      14.89286414 
Ag      4.87399097       7.46174431      14.89286414 
Ag      2.43699549       0.00000000      14.03125612 
Ag      2.43699549       2.98469772      14.03125612 
Ag      2.43699549       5.96939545      14.03125612 
Ag      0.00000000       1.49234886      13.16964810 
Ag      0.00000000       4.47704659      13.16964810 
Ag      0.00000000       7.46174431      13.16964810 
Ag      4.87399097       0.00000000      12.30804009 
Ag      4.87399097       2.98469772      12.30804009 
Ag      4.87399097       5.96939545      12.30804009 
Ag      2.43699549       1.49234886      11.44643207 
Ag      2.43699549       4.47704659      11.44643207 
Ag      2.43699549       7.46174431      11.44643207 
Ag      0.00000000       0.00000000      10.58482405 
Ag      0.00000000       2.98469772      10.58482405 
Ag      0.00000000       5.96939545      10.58482405 
Ag      4.87399097       1.49234886       9.72321603 
Ag      4.87399097       4.47704659       9.72321603 
Ag      4.87399097       7.46174431       9.72321603 
Ag      2.43699549       0.00000000       8.86160802 
Ag      2.43699549       2.98469772       8.86160802 
Ag      2.43699549       5.96939545       8.86160802 
Ag      0.00000000       1.49234886       8.00000000 
Ag      0.00000000       4.47704659       8.00000000 
Ag      0.00000000       7.46174431       8.00000000 
C      2.94992504       1.49241437      21.01269000 
H      2.69160982       2.36776455      21.61380403 
H      2.69297306       0.61606672      21.61443573 
