48
Lattice="7.324842865208783 0.0 0.0 0.0 8.971063732913727 0.0 0.0 0.0 28.085374142601736" Properties=species:S:1:pos:R:3 pbc="T T T"
Au      4.79173122       1.40161218      20.09043692 
Au      4.79178381       4.57885618      20.09058475 
Au      4.71516580       7.47594555      19.92779986 
Au      2.33350679      -0.00403729      19.20392880 
Au      2.33908274       2.99035714      19.16130361 
Au      2.33347052       5.98475609      19.20392675 
Au     -0.00568501       1.48323529      18.42245457 
Au     -0.00566877       4.49748430      18.42245514 
Au     -0.04767265       7.47588674      18.46538865 
Au      4.91267332       0.03019758      17.47765040 
Au      4.93443283       2.99034553      17.46826058 
Au      4.91268143       5.95053428      17.47759791 
Au      2.45126660       1.48941734      16.61091401 
Au      2.45125784       4.49129814      16.61090746 
Au      2.43515138       7.47588621      16.61125009 
Au      0.00434120      -0.00338246      15.76105613 
Au      0.01641725       2.99035791      15.75462405 
Au      0.00433863       5.98409083      15.76106004 
Au      4.88322858       1.49517729      14.90592808 
Au      4.88322858       4.48553187      14.90592808 
Au      4.88322858       7.47588644      14.90592808 
Au      2.44161429      -0.00000000      14.04268707 
Au      2.44161429       2.99035458      14.04268707 
Au      2.44161429       5.98070916      14.04268707 
Au     -0.00000000       1.49517729      13.17944606 
Au     -0.00000000       4.48553187      13.17944606 
Au     -0.00000000       7.47588644      13.17944606 
Au      4.88322858      -0.00000000      12.31620505 
Au      4.88322858       2.99035458      12.31620505 
Au      4.88322858       5.98070916      12.31620505 
Au      2.44161429       1.49517729      11.45296404 
Au      2.44161429       4.48553187      11.45296404 
Au      2.44161429       7.47588644      11.45296404 
Au      0.00000000       0.00000000      10.58972303 
Au      0.00000000       2.99035458      10.58972303 
Au      0.00000000       5.98070916      10.58972303 
Au      4.88322858       1.49517729       9.72648202 
Au      4.88322858       4.48553187       9.72648202 
Au      4.88322858       7.47588644       9.72648202 
Au      2.44161429      -0.00000000       8.86324101 
Au      2.44161429       2.99035458       8.86324101 
Au      2.44161429       5.98070916       8.86324101 
Au     -0.00000000       1.49517729       8.00000000 
Au     -0.00000000       4.48553187       8.00000000 
Au     -0.00000000       7.47588644       8.00000000 
C      5.16173480       2.99057564      21.41311548 
H      6.19891404       2.99035855      21.73818104 
H      4.44661121       2.99035966      22.23160083 
