48
Lattice="6.690912269638574 0.0 0.0 0.0 8.1946604871709 0.0 0.0 0.0 27.03944202243332" Properties=species:S:1:pos:R:3 pbc="T T T"
Ru      4.52023679       1.26949060      18.99069854 
Ru      4.52021979       4.19359370      18.99069749 
Ru      4.41270728       6.82887797      18.93505803 
Ru      2.23771037      -0.02458661      18.16113881 
Ru      2.26789102       2.73155100      18.22087543 
Ru      2.23770708       5.48768606      18.16113573 
Ru      0.01084825       1.37463250      17.47182627 
Ru      0.01085041       4.08846067      17.47182803 
Ru     -0.00860207       6.82888018      17.47765457 
Ru      4.43590239       0.00534323      16.66091756 
Ru      4.45943038       2.73154497      16.70002268 
Ru      4.43590007       5.45775412      16.66091976 
Ru      2.23727005       1.37836324      15.90512300 
Ru      2.23726422       4.08473420      15.90513093 
Ru      2.21847769       6.82887744      15.90462322 
Ru     -0.00419338       0.00402486      15.14259723 
Ru     -0.00887659       2.73154756      15.14023697 
Ru     -0.00419718       5.45907740      15.14259139 
Ru      4.46060818       1.36577675      14.30825258 
Ru      4.46060818       4.09733024      14.30825258 
Ru      4.46060818       6.82888374      14.30825258 
Ru      2.23030409       0.00000000      13.51972101 
Ru      2.23030409       2.73155350      13.51972101 
Ru      2.23030409       5.46310699      13.51972101 
Ru     -0.00000000       1.36577675      12.73118944 
Ru     -0.00000000       4.09733024      12.73118944 
Ru     -0.00000000       6.82888374      12.73118944 
Ru      4.46060818       0.00000000      11.94265787 
Ru      4.46060818       2.73155350      11.94265787 
Ru      4.46060818       5.46310699      11.94265787 
Ru      2.23030409       1.36577675      11.15412629 
Ru      2.23030409       4.09733024      11.15412629 
Ru      2.23030409       6.82888374      11.15412629 
Ru      0.00000000       0.00000000      10.36559472 
Ru      0.00000000       2.73155350      10.36559472 
Ru      0.00000000       5.46310699      10.36559472 
Ru      4.46060818       1.36577675       9.57706315 
Ru      4.46060818       4.09733024       9.57706315 
Ru      4.46060818       6.82888374       9.57706315 
Ru      2.23030409       0.00000000       8.78853157 
Ru      2.23030409       2.73155350       8.78853157 
Ru      2.23030409       5.46310699       8.78853157 
Ru     -0.00000000       1.36577675       8.00000000 
Ru     -0.00000000       4.09733024       8.00000000 
Ru     -0.00000000       6.82888374       8.00000000 
C      3.52022098       2.73153605      20.09977231 
H      3.89593099       2.73166569      21.13377646 
H      2.38685867       2.73143352      20.23668543 
