33
Lattice="-7.280120989474548 0.0 0.0 -0.01939853386274759 -5.940201193559256 4.051701039685601e-16 -1.5515429010510682e-16 1.3866431560081384e-15 29.19029237833857" Properties=species:S:1:pos:R:3 pbc="T T T"
Ag     -2.44216306      -2.87703422      12.12373899 
Ag     -4.85425470      -4.40201976      11.23663657 
Ag     -7.24283227       0.03891182      10.35226526 
Ag     -2.38296244      -1.47392523       9.44080350 
Ag     -4.84635447      -2.97256190       8.60333981 
Ag     -7.27632504      -4.45689722       7.75295660 
Ag     -2.41377464      -0.01589172       6.86830409 
Ag     -4.84694782      -1.49895555       6.00976608 
Ag     -7.28012099      -2.98201938       5.15122807 
Ag     -2.43317317      -4.46508322       4.29269006 
Ag     -4.84694782      -0.00794586       3.43415204 
Ag     -7.28012099      -1.49100969       2.57561403 
Ag     -2.43317317      -2.97407353       1.71707602 
Ag     -4.86634635      -4.45713736       0.85853801 
Ag      0.00000000       0.00000000       0.00000000 
Au     -2.50753469       0.05726149      11.93516144 
Au     -4.80178137      -1.46829602      11.17282805 
Au     -7.20806966      -2.91587824      10.48357706 
Au     -2.39721806      -4.42177399       9.42824011 
Au     -4.84467196       0.01164367       8.59045803 
Au     -7.25907443      -1.52784536       7.77591758 
Au     -2.42347391      -2.98599231       6.86830409 
Au     -4.85664708      -4.46905615       6.00976608 
Au     -7.27042172      -0.01191879       5.15122807 
Au     -2.42347391      -1.49498262       4.29269006 
Au     -4.85664708      -2.97804645       3.43415204 
Au     -7.28982026      -4.46111029       2.57561403 
Au     -2.42347391      -0.00397293       1.71707602 
Au     -4.85664708      -1.48703676       0.85853801 
Au     -0.00969927      -2.97010060       0.00000000 
C     -7.56738186      -3.11166222      12.56779516 
H     -7.19125009      -2.28499890      13.16495365 
H     -7.34953190      -4.07763960      13.01323080 
