33
Lattice="-5.479341628612701 0.0 2.465190328815662e-32 -0.018325107647134464 -6.707028884119404 9.161108802166074e-16 -4.353840088415608e-15 5.4590948824744445e-15 26.859667733013573" Properties=species:S:1:pos:R:3 pbc="T T T"
Ir     -2.73052001      -4.35566268      10.93898521 
Ir     -4.08375397      -2.26917454      10.18933257 
Ir     -5.49244949      -6.68948931       9.59754824 
Ir     -1.35592798      -4.48458930       8.67203180 
Ir     -2.72209388      -2.21567313       7.88021387 
Ir     -4.10806940      -6.69836313       7.11343345 
Ir     -5.47934163      -4.46140544       6.31992182 
Ir     -1.36525413      -2.22697254       5.52993159 
Ir     -2.74883337      -6.69956852       4.73994136 
Ir     -4.11408750      -4.46513562       3.94995114 
Ir     -5.47934163      -2.23070272       3.15996091 
Ir     -1.38357924      -6.70329870       2.36997068 
Ir     -2.74883337      -4.46886580       1.57998045 
Ir     -4.11408750      -2.23443290       0.78999023 
Ir      0.00000000       0.00000000       0.00000000 
Ru     -5.45741117      -4.39695178      10.98074154 
Ru     -1.35366897      -2.19180755      10.31046967 
Ru     -2.77646999      -6.68896532       9.45187194 
Ru     -4.13193540      -4.48388556       8.70298904 
Ru     -5.48543967      -2.21033693       7.90798137 
Ru     -1.37634749      -6.70224676       7.14745395 
Ru     -2.73967081      -4.46140544       6.31992182 
Ru     -4.10492494      -2.22697254       5.52993159 
Ru     -5.48850418      -6.69956852       4.73994136 
Ru     -1.37441668      -4.46513562       3.94995114 
Ru     -2.73967081      -2.23070272       3.15996091 
Ru     -4.12325005      -6.70329870       2.36997068 
Ru     -5.48850418      -4.46886580       1.57998045 
Ru     -1.37441668      -2.23443290       0.78999023 
Ru     -2.73967081       0.00000000       0.00000000 
C     -6.14664008      -7.23541467      11.48650033 
H     -5.37464210      -7.47526757      12.21756601 
H     -7.00101443      -6.74016864      11.95778496 
