48
Lattice="7.310986458748231 0.0 0.0 0.0 8.954093170165251 0.0 0.0 0.0 28.06251223833576" Properties=species:S:1:pos:R:3 pbc="T T T"
Ag      4.91866365       1.47230080      19.93441215 
Ag      4.91865837       4.49709962      19.93441401 
Ag      4.85932475       7.46174462      19.94302777 
Ag      2.41475932       0.01436624      19.25793877 
Ag      2.45587402       2.98471204      19.15142025 
Ag      2.41476263       5.95504327      19.25792568 
Ag      0.01864304       1.47284347      18.32692585 
Ag      0.01863938       4.49655673      18.32692608 
Ag      0.02914293       7.46174135      18.38309508 
Ag      4.89527887      -0.00212141      17.44449272 
Ag      4.90712688       2.98469978      17.44276091 
Ag      4.89528171       5.97151445      17.44448967 
Ag      2.44797071       1.50069126      16.60910572 
Ag      2.44796911       4.46870675      16.60910630 
Ag      2.43072729       7.46174571      16.64690410 
Ag      0.00950229      -0.00372710      15.73314983 
Ag      0.01562099       2.98469984      15.73971292 
Ag      0.00950345       5.97311826      15.73314979 
Ag      4.87399097       1.49234886      14.89286414 
Ag      4.87399097       4.47704659      14.89286414 
Ag      4.87399097       7.46174431      14.89286414 
Ag      2.43699549       0.00000000      14.03125612 
Ag      2.43699549       2.98469772      14.03125612 
Ag      2.43699549       5.96939545      14.03125612 
Ag      0.00000000       1.49234886      13.16964810 
Ag      0.00000000       4.47704659      13.16964810 
Ag      0.00000000       7.46174431      13.16964810 
Ag      4.87399097       0.00000000      12.30804009 
Ag      4.87399097       2.98469772      12.30804009 
Ag      4.87399097       5.96939545      12.30804009 
Ag      2.43699549       1.49234886      11.44643207 
Ag      2.43699549       4.47704659      11.44643207 
Ag      2.43699549       7.46174431      11.44643207 
Ag      0.00000000       0.00000000      10.58482405 
Ag      0.00000000       2.98469772      10.58482405 
Ag      0.00000000       5.96939545      10.58482405 
Ag      4.87399097       1.49234886       9.72321603 
Ag      4.87399097       4.47704659       9.72321603 
Ag      4.87399097       7.46174431       9.72321603 
Ag      2.43699549       0.00000000       8.86160802 
Ag      2.43699549       2.98469772       8.86160802 
Ag      2.43699549       5.96939545       8.86160802 
Ag      0.00000000       1.49234886       8.00000000 
Ag      0.00000000       4.47704659       8.00000000 
Ag      0.00000000       7.46174431       8.00000000 
C      1.78976456       2.98465655      21.11837221 
H      2.46334494       2.98461461      21.97250567 
H      0.74284223       2.98468127      21.41198637 
