33
Lattice="-5.479341628612701 0.0 2.465190328815662e-32 -0.018325107647134464 -6.707028884119404 9.161108802166074e-16 -4.353840088415608e-15 5.4590948824744445e-15 26.859667733013573" Properties=species:S:1:pos:R:3 pbc="T T T"
Ir     -2.73181611      -4.40574356      10.96326505 
Ir     -4.14108809      -2.23300160      10.30755140 
Ir     -5.48609258      -6.66732740       9.46250683 
Ir     -1.36879636      -4.45814944       8.69326973 
Ir     -2.73200748      -2.22291957       7.85916740 
Ir     -4.11039765      -6.70239901       7.13562851 
Ir     -5.47934163      -4.46140544       6.31992182 
Ir     -1.36525413      -2.22697254       5.52993159 
Ir     -2.74883337      -6.69956852       4.73994136 
Ir     -4.11408750      -4.46513562       3.94995114 
Ir     -5.47934163      -2.23070272       3.15996091 
Ir     -1.38357924      -6.70329870       2.36997068 
Ir     -2.74883337      -4.46886580       1.57998045 
Ir     -4.11408750      -2.23443290       0.78999023 
Ir      0.00000000       0.00000000       0.00000000 
Ru     -5.46418016      -4.42207655      10.96702361 
Ru     -1.33679206      -2.23524551      10.23183538 
Ru     -2.75187305      -6.65214574       9.55825755 
Ru     -4.10486292      -4.45948691       8.68772681 
Ru     -5.47180410      -2.19734874       7.91472658 
Ru     -1.37927151      -6.70252665       7.13432317 
Ru     -2.73967081      -4.46140544       6.31992182 
Ru     -4.10492494      -2.22697254       5.52993159 
Ru     -5.48850418      -6.69956852       4.73994136 
Ru     -1.37441668      -4.46513562       3.94995114 
Ru     -2.73967081      -2.23070272       3.15996091 
Ru     -4.12325005      -6.70329870       2.36997068 
Ru     -5.48850418      -4.46886580       1.57998045 
Ru     -1.37441668      -2.23443290       0.78999023 
Ru     -2.73967081       0.00000000       0.00000000 
C     -2.91412030      -7.71188917      11.38611743 
H     -1.95866954      -8.10445425      11.89797337 
H     -3.39451733      -7.16829094      12.20172319 
