48
Lattice="6.903954518969544 0.0 0.0 0.0 8.455582889428735 0.0 0.0 0.0 27.390943800522706" Properties=species:S:1:pos:R:3 pbc="T T T"
Pd      4.55550405       1.40518431      19.30883234 
Pd      4.56108730       4.23228375      19.35159780 
Pd      4.61414651       7.05877646      19.31706284 
Pd      2.28866137      -0.00400410      18.57454065 
Pd      2.26530633       2.82147350      18.68421553 
Pd      2.33653969       5.67232308      18.54624053 
Pd     -0.01611794       1.37339387      17.78579989 
Pd      0.00608573       4.22365310      17.96976261 
Pd      0.01453523       7.04859263      17.82758224 
Pd      4.60399875      -0.00846117      16.91184051 
Pd      4.59342498       2.81848035      16.93506453 
Pd      4.63467542       5.62381172      16.92852461 
Pd      2.28432982       1.41217153      16.14851618 
Pd      2.28638920       4.21753409      16.14311624 
Pd      2.29029042       7.04386872      16.12570091 
Pd      0.00049925      -0.00727004      15.32149619 
Pd      0.00036280       2.82476123      15.33633552 
Pd      0.00251260       5.61955057      15.35641890 
Pd      4.60263635       1.40926381      14.50911074 
Pd      4.60263635       4.22779144      14.50911074 
Pd      4.60263635       7.04631907      14.50911074 
Pd      2.30131817       0.00000000      13.69547190 
Pd      2.30131817       2.81852763      13.69547190 
Pd      2.30131817       5.63705526      13.69547190 
Pd      0.00000000       1.40926381      12.88183306 
Pd      0.00000000       4.22779144      12.88183306 
Pd      0.00000000       7.04631907      12.88183306 
Pd      4.60263635       0.00000000      12.06819421 
Pd      4.60263635       2.81852763      12.06819421 
Pd      4.60263635       5.63705526      12.06819421 
Pd      2.30131817       1.40926381      11.25455537 
Pd      2.30131817       4.22779144      11.25455537 
Pd      2.30131817       7.04631907      11.25455537 
Pd      0.00000000       0.00000000      10.44091653 
Pd      0.00000000       2.81852763      10.44091653 
Pd      0.00000000       5.63705526      10.44091653 
Pd      4.60263635       1.40926381       9.62727769 
Pd      4.60263635       4.22779144       9.62727769 
Pd      4.60263635       7.04631907       9.62727769 
Pd      2.30131817       0.00000000       8.81363884 
Pd      2.30131817       2.81852763       8.81363884 
Pd      2.30131817       5.63705526       8.81363884 
Pd      0.00000000       1.40926381       8.00000000 
Pd      0.00000000       4.22779144       8.00000000 
Pd      0.00000000       7.04631907       8.00000000 
C      0.71163008       3.54029586      19.74959975 
H      0.95760475       4.33943510      20.45095333 
H      0.15672739       2.72874878      20.22331717 
