48
Lattice="7.310986458748231 0.0 0.0 0.0 8.954093170165251 0.0 0.0 0.0 28.06251223833576" Properties=species:S:1:pos:R:3 pbc="T T T"
Ag      4.96712933       1.54832180      19.98289192 
Ag      4.96680612       4.42094010      19.98333109 
Ag      4.91925045       7.46165088      19.93587709 
Ag      2.47515732      -0.02278157      19.15811543 
Ag      2.33649792       2.98478998      19.31987986 
Ag      2.47521655       5.99206357      19.15837590 
Ag      0.04624246       1.47915521      18.34722086 
Ag      0.04617171       4.49019744      18.34734158 
Ag      0.05833114       7.46176453      18.36838830 
Ag      4.94075947       0.02174171      17.47155323 
Ag      4.92804648       2.98471204      17.41862894 
Ag      4.94073172       5.94758049      17.47156947 
Ag      2.45467637       1.51269771      16.63439444 
Ag      2.45471514       4.45665438      16.63439506 
Ag      2.46518164       7.46176549      16.59060889 
Ag      0.01886027      -0.00799204      15.73066449 
Ag      0.02704646       2.98470511      15.73881497 
Ag      0.01884754       5.97739861      15.73059370 
Ag      4.87399097       1.49234886      14.89286414 
Ag      4.87399097       4.47704659      14.89286414 
Ag      4.87399097       7.46174431      14.89286414 
Ag      2.43699549       0.00000000      14.03125612 
Ag      2.43699549       2.98469772      14.03125612 
Ag      2.43699549       5.96939545      14.03125612 
Ag      0.00000000       1.49234886      13.16964810 
Ag      0.00000000       4.47704659      13.16964810 
Ag      0.00000000       7.46174431      13.16964810 
Ag      4.87399097       0.00000000      12.30804009 
Ag      4.87399097       2.98469772      12.30804009 
Ag      4.87399097       5.96939545      12.30804009 
Ag      2.43699549       1.49234886      11.44643207 
Ag      2.43699549       4.47704659      11.44643207 
Ag      2.43699549       7.46174431      11.44643207 
Ag      0.00000000       0.00000000      10.58482405 
Ag      0.00000000       2.98469772      10.58482405 
Ag      0.00000000       5.96939545      10.58482405 
Ag      4.87399097       1.49234886       9.72321603 
Ag      4.87399097       4.47704659       9.72321603 
Ag      4.87399097       7.46174431       9.72321603 
Ag      2.43699549       0.00000000       8.86160802 
Ag      2.43699549       2.98469772       8.86160802 
Ag      2.43699549       5.96939545       8.86160802 
Ag      0.00000000       1.49234886       8.00000000 
Ag      0.00000000       4.47704659       8.00000000 
Ag      0.00000000       7.46174431       8.00000000 
C      3.49605628       2.98504877      21.18568285 
H      3.38215686       3.86129918      21.82914201 
H      3.38331499       2.10843467      21.82889863 
