33
Lattice="-6.815208142375564 -2.220446049250313e-16 0.0 -0.015633100634291353 -5.561380165377557 1.4495783466131372e-15 -4.9527771270904014e-15 2.3247100242968298e-15 27.323685057745415" Properties=species:S:1:pos:R:3 pbc="T T T"
Pt     -2.24590754      -2.88661992      11.13540258 
Pt     -4.58515059      -4.17295539      10.41345209 
Pt     -6.81441212      -0.01157667       9.77288328 
Pt     -2.24076327      -1.39180712       8.82378356 
Pt     -4.53927130      -2.78148072       8.02870769 
Pt     -6.81084255      -4.17978923       7.25232950 
Pt     -2.26131398      -0.01280105       6.42910237 
Pt     -4.53826106      -1.40154596       5.62546457 
Pt     -6.81520814      -2.79029087       4.82182677 
Pt     -2.27694708      -4.17903578       4.01818898 
Pt     -4.53826106      -0.00640052       3.21455118 
Pt     -6.81520814      -1.39514543       2.41091339 
Pt     -2.27694708      -2.78389034       1.60727559 
Pt     -4.55389416      -4.17263525       0.80363780 
Pt      0.00000000       0.00000000       0.00000000 
Rh     -2.38677575      -0.04521153      11.22429727 
Rh     -4.58032043      -1.41267582      10.56754601 
Rh     -6.77617191      -2.76762577       9.70216134 
Rh     -2.25474207      -4.19637239       8.80614304 
Rh     -4.54785643      -0.01695468       8.03221799 
Rh     -6.79618724      -1.39462990       7.25455592 
Rh     -2.26913053      -2.79349113       6.42910237 
Rh     -4.54607761      -4.18223604       5.62546457 
Rh     -6.80739159      -0.00960078       4.82182677 
Rh     -2.26913053      -1.39834570       4.01818898 
Rh     -4.54607761      -2.78709061       3.21455118 
Rh     -6.82302469      -4.17583552       2.41091339 
Rh     -2.26913053      -0.00320026       1.60727559 
Rh     -4.54607761      -1.39194517       0.80363780 
Rh     -0.00781655      -2.78069008       0.00000000 
C    -10.75364356      -6.31629529      12.37341366 
H    -10.44238132      -7.09426822      13.07739740 
H    -11.39040282      -5.56505934      12.84278693 
