48
Lattice="6.375679022661037 0.0 0.0 0.0 7.808580184643044 0.0 0.0 0.0 26.519333700382354" Properties=species:S:1:pos:R:3 pbc="T T T"
Cu      4.24992799       1.34146550      18.46978575 
Cu      4.20663413       3.90426961      18.41597753 
Cu      4.24992497       6.46708464      18.46980129 
Cu      2.15409107      -0.00000839      17.74937359 
Cu      2.11393478       2.58758132      17.69976413 
Cu      2.11393766       5.22098979      17.69976603 
Cu      0.02650843       1.29321533      17.04507932 
Cu      0.03454947       3.90428953      17.01002847 
Cu      0.02650846       6.51536293      17.04508564 
Cu      4.28857920      -0.00000804      16.29533090 
Cu      4.28534310       2.60889591      16.24623870 
Cu      4.28534499       5.19967725      16.24624032 
Cu      2.13326385       1.29188303      15.49836280 
Cu      2.14777756       3.90428774      15.50951843 
Cu      2.13326842       6.51669254      15.49836382 
Cu     -0.00538061      -0.00000255      14.76143538 
Cu      0.00957608       2.59808279      14.75622393 
Cu      0.00957551       5.21049552      14.75622724 
Cu      4.25045268       1.30143003      14.01104783 
Cu      4.25045268       3.90429009      14.01104783 
Cu      4.25045268       6.50715015      14.01104783 
Cu      2.12522634       0.00000000      13.25966685 
Cu      2.12522634       2.60286006      13.25966685 
Cu      2.12522634       5.20572012      13.25966685 
Cu      0.00000000       1.30143003      12.50828587 
Cu      0.00000000       3.90429009      12.50828587 
Cu      0.00000000       6.50715015      12.50828587 
Cu      4.25045268      -0.00000000      11.75690489 
Cu      4.25045268       2.60286006      11.75690489 
Cu      4.25045268       5.20572012      11.75690489 
Cu      2.12522634       1.30143003      11.00552391 
Cu      2.12522634       3.90429009      11.00552391 
Cu      2.12522634       6.50715015      11.00552391 
Cu      0.00000000       0.00000000      10.25414294 
Cu      0.00000000       2.60286006      10.25414294 
Cu      0.00000000       5.20572012      10.25414294 
Cu      4.25045268       1.30143003       9.50276196 
Cu      4.25045268       3.90429009       9.50276196 
Cu      4.25045268       6.50715015       9.50276196 
Cu      2.12522634       0.00000000       8.75138098 
Cu      2.12522634       2.60286006       8.75138098 
Cu      2.12522634       5.20572012       8.75138098 
Cu      0.00000000       1.30143003       8.00000000 
Cu      0.00000000       3.90429009       8.00000000 
Cu      0.00000000       6.50715015       8.00000000 
C      4.60625667       3.90436678      20.20629029 
H      5.63540670       3.90439282      20.56577339 
H      3.87946975       3.90435428      21.01669773 
