33
Lattice="-7.280120989474548 0.0 0.0 -0.01939853386274759 -5.940201193559256 4.051701039685601e-16 -1.5515429010510682e-16 1.3866431560081384e-15 29.19029237833857" Properties=species:S:1:pos:R:3 pbc="T T T"
Ag     -2.37678364      -2.99446560      12.17720096 
Ag     -4.85979314      -4.51721250      11.17996051 
Ag     -7.24486775      -0.07670416      10.40959574 
Ag     -2.37259231      -1.54721222       9.49826029 
Ag     -4.83179479      -3.02134114       8.58077544 
Ag     -7.27265028      -4.49039753       7.75448373 
Ag     -2.41377464      -0.01589172       6.86830409 
Ag     -4.84694782      -1.49895555       6.00976608 
Ag     -7.28012099      -2.98201938       5.15122807 
Ag     -2.43317317      -4.46508322       4.29269006 
Ag     -4.84694782      -0.00794586       3.43415204 
Ag     -7.28012099      -1.49100969       2.57561403 
Ag     -2.43317317      -2.97407353       1.71707602 
Ag     -4.86634635      -4.45713736       0.85853801 
Ag      0.00000000       0.00000000       0.00000000 
Au     -2.54326583      -0.15062833      12.11419415 
Au     -4.81900381      -1.60219755      11.13591728 
Au     -7.23340686      -3.04139436      10.38013535 
Au     -2.37674059      -4.50439185       9.45522480 
Au     -4.82498189      -0.04060106       8.58967756 
Au     -7.27249804      -1.51006864       7.73664648 
Au     -2.42347391      -2.98599231       6.86830409 
Au     -4.85664708      -4.46905615       6.00976608 
Au     -7.27042172      -0.01191879       5.15122807 
Au     -2.42347391      -1.49498262       4.29269006 
Au     -4.85664708      -2.97804645       3.43415204 
Au     -7.28982026      -4.46111029       2.57561403 
Au     -2.42347391      -0.00397293       1.71707602 
Au     -4.85664708      -1.48703676       0.85853801 
Au     -0.00969927      -2.97010060       0.00000000 
C     -9.04832893      -4.70668617      13.42160423 
H     -7.96654102      -4.74328623      13.51369109 
H     -9.55720167      -4.68829505      14.38319424 
