48
Lattice="6.696108422061281 0.0 0.0 0.0 8.20102444820158 0.0 0.0 0.0 27.048015236533065" Properties=species:S:1:pos:R:3 pbc="T T T"
Rh      4.41533470       1.40046761      19.03107221 
Pt      4.41753350       4.08114700      18.99945939 
Rh      4.42206216       6.79247103      18.96423595 
Rh      2.18779003      -0.00972327      18.29290393 
Rh      2.19416133       2.73911542      18.18755056 
Rh      2.18363889       5.44565931      18.19368919 
Rh      0.00389510       1.35655366      17.51074581 
Rh     -0.00615352       4.09390017      17.50306266 
Rh      0.00654305       6.84185137      17.50815047 
Rh      4.48156058       0.01321891      16.64561180 
Rh      4.46014138       2.72009955      16.63979680 
Rh      4.46112417       5.48969281      16.67446230 
Rh      2.21973105       1.35913215      15.87984856 
Rh      2.21099043       4.10288553      15.87003431 
Rh      2.22033709       6.83825818      15.87432127 
Rh     -0.00132622      -0.00206696      15.11273860 
Rh     -0.00755627       2.73054093      15.11665218 
Rh     -0.01400649       5.46661112      15.12072521 
Rh      4.46407228       1.36683741      14.31315156 
Rh      4.46407228       4.10051222      14.31315156 
Rh      4.46407228       6.83418704      14.31315156 
Rh      2.23203614       0.00000000      13.52400762 
Rh      2.23203614       2.73367482      13.52400762 
Rh      2.23203614       5.46734963      13.52400762 
Rh     -0.00000000       1.36683741      12.73486367 
Rh     -0.00000000       4.10051222      12.73486367 
Rh     -0.00000000       6.83418704      12.73486367 
Rh      4.46407228       0.00000000      11.94571973 
Rh      4.46407228       2.73367482      11.94571973 
Rh      4.46407228       5.46734963      11.94571973 
Rh      2.23203614       1.36683741      11.15657578 
Rh      2.23203614       4.10051222      11.15657578 
Rh      2.23203614       6.83418704      11.15657578 
Rh      0.00000000       0.00000000      10.36743184 
Rh      0.00000000       2.73367482      10.36743184 
Rh      0.00000000       5.46734963      10.36743184 
Rh      4.46407228       1.36683741       9.57828789 
Rh      4.46407228       4.10051222       9.57828789 
Rh      4.46407228       6.83418704       9.57828789 
Rh      2.23203614       0.00000000       8.78914395 
Rh      2.23203614       2.73367482       8.78914395 
Rh      2.23203614       5.46734963       8.78914395 
Rh     -0.00000000       1.36683741       8.00000000 
Rh     -0.00000000       4.10051222       8.00000000 
Rh     -0.00000000       6.83418704       8.00000000 
C      3.28613221       8.28347350      20.05495763 
H      2.58878708       8.66749191      20.80556913 
H      3.84068869       7.44455910      20.63659156 
