33
Lattice="-5.479341628612701 0.0 2.465190328815662e-32 -0.018325107647134464 -6.707028884119404 9.161108802166074e-16 -4.353840088415608e-15 5.4590948824744445e-15 26.859667733013573" Properties=species:S:1:pos:R:3 pbc="T T T"
Ir     -2.75134550      -4.41294390      10.94249726 
Ir     -4.08403841      -2.24606822      10.18832518 
Ir     -5.46906280      -6.68214924       9.49201887 
Ir     -1.35359879      -4.45582001       8.67541693 
Ir     -2.72618767      -2.22285885       7.87759673 
Ir     -4.10405442      -6.69689773       7.14522628 
Ir     -5.47934163      -4.46140544       6.31992182 
Ir     -1.36525413      -2.22697254       5.52993159 
Ir     -2.74883337      -6.69956852       4.73994136 
Ir     -4.11408750      -4.46513562       3.94995114 
Ir     -5.47934163      -2.23070272       3.15996091 
Ir     -1.38357924      -6.70329870       2.36997068 
Ir     -2.74883337      -4.46886580       1.57998045 
Ir     -4.11408750      -2.23443290       0.78999023 
Ir      0.00000000       0.00000000       0.00000000 
Ru     -5.45619191      -4.44265041      10.96863095 
Ru     -1.34598061      -2.18286614      10.38737538 
Ru     -2.72994106      -6.68085975       9.50912855 
Ru     -4.10771284      -4.45830495       8.69020777 
Ru     -5.48134973      -2.21730815       7.91244329 
Ru     -1.37466659      -6.70867202       7.14587842 
Ru     -2.73967081      -4.46140544       6.31992182 
Ru     -4.10492494      -2.22697254       5.52993159 
Ru     -5.48850418      -6.69956852       4.73994136 
Ru     -1.37441668      -4.46513562       3.94995114 
Ru     -2.73967081      -2.23070272       3.15996091 
Ru     -4.12325005      -6.70329870       2.36997068 
Ru     -5.48850418      -4.46886580       1.57998045 
Ru     -1.37441668      -2.23443290       0.78999023 
Ru     -2.73967081       0.00000000       0.00000000 
C     -6.68097009      -8.41220841      12.25171554 
H     -7.41987113      -8.70401762      12.99797917 
H     -5.86592797      -7.80955094      12.65158898 
