48
Lattice="6.127995757178688 0.0 0.0 0.0 7.505231375514016 0.0 0.0 0.0 26.11067716162803" Properties=species:S:1:pos:R:3 pbc="T T T"
Ni      4.01803480       1.22526865      18.07673087 
Ni      4.01784214       3.77775791      18.07661549 
Ni      4.04202654       6.25494018      18.01795821 
Ni      2.02184301      -0.02268502      17.34426799 
Ni      2.01212965       2.50104595      17.41653603 
Ni      2.02180418       5.02666651      17.34439490 
Ni     -0.00871346       1.24990204      16.70832324 
Ni     -0.00872740       3.75284233      16.70828247 
Ni     -0.01627254       6.25495928      16.71502544 
Ni      4.09127828       0.00100178      15.93068597 
Ni      4.10377815       2.50123930      15.92397312 
Ni      4.09129224       5.00291553      15.93098841 
Ni      2.03230249       1.25922395      15.23047469 
Ni      2.03237619       3.74370315      15.23071881 
Ni      2.02974886       6.25482828      15.20833507 
Ni     -0.00288040       0.00218722      14.51480923 
Ni      0.00006945       2.50125772      14.51371265 
Ni     -0.00273971       5.00171601      14.51493140 
Ni      4.08533050       1.25087190      13.77752981 
Ni      4.08533050       3.75261569      13.77752981 
Ni      4.08533050       6.25435948      13.77752981 
Ni      2.04266525       0.00000000      13.05533858 
Ni      2.04266525       2.50174379      13.05533858 
Ni      2.04266525       5.00348758      13.05533858 
Ni      0.00000000       1.25087190      12.33314735 
Ni      0.00000000       3.75261569      12.33314735 
Ni      0.00000000       6.25435948      12.33314735 
Ni      4.08533050       0.00000000      11.61095613 
Ni      4.08533050       2.50174379      11.61095613 
Ni      4.08533050       5.00348758      11.61095613 
Ni      2.04266525       1.25087190      10.88876490 
Ni      2.04266525       3.75261569      10.88876490 
Ni      2.04266525       6.25435948      10.88876490 
Ni      0.00000000       0.00000000      10.16657368 
Ni      0.00000000       2.50174379      10.16657368 
Ni      0.00000000       5.00348758      10.16657368 
Ni      4.08533050       1.25087190       9.44438245 
Ni      4.08533050       3.75261569       9.44438245 
Ni      4.08533050       6.25435948       9.44438245 
Ni      2.04266525       0.00000000       8.72219123 
Ni      2.04266525       2.50174379       8.72219123 
Ni      2.04266525       5.00348758       8.72219123 
Ni      0.00000000       1.25087190       8.00000000 
Ni      0.00000000       3.75261569       8.00000000 
Ni      0.00000000       6.25435948       8.00000000 
C      3.14436924       2.50145615      19.19680544 
H      3.71104077       2.50118224      20.13908219 
H      2.06975076       2.50172232      19.47166591 
