48
Lattice="6.696108422061281 0.0 0.0 0.0 8.20102444820158 0.0 0.0 0.0 27.048015236533065" Properties=species:S:1:pos:R:3 pbc="T T T"
Rh      4.44138687       1.36712475      18.94094172 
Pt      4.44892391       4.09059903      18.99689299 
Rh      4.45145891       6.84742393      18.97623794 
Rh      2.24578849       0.00774015      18.27004771 
Rh      2.21928952       2.71825845      18.20351981 
Rh      2.23293088       5.47057893      18.26843414 
Rh      0.00827314       1.39046973      17.47998613 
Rh      0.01742199       4.07728173      17.48018330 
Rh     -0.01194858       6.83725466      17.59171017 
Rh      4.47635941      -0.00686398      16.67266161 
Rh      4.47467576       2.72737351      16.63278962 
Rh      4.47494004       5.48062927      16.65399642 
Rh      2.21639338       1.35671983      15.87750132 
Rh      2.21509356       4.10954664      15.88482942 
Rh      2.22298417       6.83480277      15.85386560 
Rh     -0.00104395      -0.00427769      15.11331604 
Rh      0.00175621       2.73450957      15.09893119 
Rh      0.00098467       5.47142514      15.11547723 
Rh      4.46407228       1.36683741      14.31315156 
Rh      4.46407228       4.10051222      14.31315156 
Rh      4.46407228       6.83418704      14.31315156 
Rh      2.23203614       0.00000000      13.52400762 
Rh      2.23203614       2.73367482      13.52400762 
Rh      2.23203614       5.46734963      13.52400762 
Rh     -0.00000000       1.36683741      12.73486367 
Rh     -0.00000000       4.10051222      12.73486367 
Rh     -0.00000000       6.83418704      12.73486367 
Rh      4.46407228       0.00000000      11.94571973 
Rh      4.46407228       2.73367482      11.94571973 
Rh      4.46407228       5.46734963      11.94571973 
Rh      2.23203614       1.36683741      11.15657578 
Rh      2.23203614       4.10051222      11.15657578 
Rh      2.23203614       6.83418704      11.15657578 
Rh      0.00000000       0.00000000      10.36743184 
Rh      0.00000000       2.73367482      10.36743184 
Rh      0.00000000       5.46734963      10.36743184 
Rh      4.46407228       1.36683741       9.57828789 
Rh      4.46407228       4.10051222       9.57828789 
Rh      4.46407228       6.83418704       9.57828789 
Rh      2.23203614       0.00000000       8.78914395 
Rh      2.23203614       2.73367482       8.78914395 
Rh      2.23203614       5.46734963       8.78914395 
Rh     -0.00000000       1.36683741       8.00000000 
Rh     -0.00000000       4.10051222       8.00000000 
Rh     -0.00000000       6.83418704       8.00000000 
C      0.96199321       6.84999841      19.37339173 
H      0.89404676       7.73347617      20.03430007 
H      0.90486920       5.95995088      20.02829666 
