33
Lattice="-5.479341628612701 0.0 2.465190328815662e-32 -0.018325107647134464 -6.707028884119404 9.161108802166074e-16 -4.353840088415608e-15 5.4590948824744445e-15 26.859667733013573" Properties=species:S:1:pos:R:3 pbc="T T T"
Ir     -2.73545646      -4.38004199      10.93252847 
Ir     -4.11171572      -2.22844210      10.20249522 
Ir     -5.48014902      -6.69940955       9.50550932 
Ir     -1.35574819      -4.47200009       8.69390314 
Ir     -2.72528400      -2.21684568       7.89096375 
Ir     -4.10964114      -6.69214729       7.13156362 
Ir     -5.47934163      -4.46140544       6.31992182 
Ir     -1.36525413      -2.22697254       5.52993159 
Ir     -2.74883337      -6.69956852       4.73994136 
Ir     -4.11408750      -4.46513562       3.94995114 
Ir     -5.47934163      -2.23070272       3.15996091 
Ir     -1.38357924      -6.70329870       2.36997068 
Ir     -2.74883337      -4.46886580       1.57998045 
Ir     -4.11408750      -2.23443290       0.78999023 
Ir      0.00000000       0.00000000       0.00000000 
Ru     -5.47167745      -4.42850628      11.03787650 
Ru     -1.34910765      -2.22863857      10.20795089 
Ru     -2.74025740      -6.69156478       9.49933024 
Ru     -4.10953589      -4.46584492       8.70062229 
Ru     -5.47385666      -2.22239269       7.89145150 
Ru     -1.37472678      -6.69194150       7.15026568 
Ru     -2.73967081      -4.46140544       6.31992182 
Ru     -4.10492494      -2.22697254       5.52993159 
Ru     -5.48850418      -6.69956852       4.73994136 
Ru     -1.37441668      -4.46513562       3.94995114 
Ru     -2.73967081      -2.23070272       3.15996091 
Ru     -4.12325005      -6.70329870       2.36997068 
Ru     -5.48850418      -4.46886580       1.57998045 
Ru     -1.37441668      -2.23443290       0.78999023 
Ru     -2.73967081       0.00000000       0.00000000 
C     -5.46208983      -4.89086602      12.89515694 
H     -4.55519392      -5.07624897      13.47001889 
H     -6.38399032      -5.05735352      13.45415459 
