33
Lattice="-5.774673946975337 0.0 0.0 -0.03752996377879758 -7.064737690855914 2.3638699909697887e-16 -2.174605810921756e-15 2.735223450450853e-15 28.27729033432464" Properties=species:S:1:pos:R:3 pbc="T T T"
Ag     -2.87937435      -4.66274541      11.66177445 
Ag     -4.28944949      -2.30355588      10.91901416 
Ag     -5.78495797      -7.08208940      10.13052269 
Ag     -1.44575548      -4.68861763       9.13747731 
Ag     -2.87800844      -2.32929655       8.34090300 
Ag     -4.34961137      -7.03612307       7.50843348 
Ag     -5.77467395      -4.68950686       6.65348008 
Ag     -1.43428600      -2.33713408       5.82179507 
Ag     -2.90610196      -7.04949899       4.99011006 
Ag     -4.34038795      -4.69712621       4.15842505 
Ag     -5.77467395      -2.34475343       3.32674004 
Ag     -1.47181596      -7.05711834       2.49505503 
Ag     -2.90610196      -4.70474556       1.66337002 
Ag     -4.34038795      -2.35237278       0.83168501 
Ag      0.00000000       0.00000000       0.00000000 
Pd     -5.77858995      -4.67914449      11.60443150 
Pd     -1.39524983      -2.33843199      10.82997981 
Pd     -2.89273773      -7.03430912       9.97076860 
Pd     -4.32493646      -4.67870909       9.17078541 
Pd     -5.75356030      -2.30872666       8.34962650 
Pd     -1.44233053      -7.04354879       7.50601544 
Pd     -2.88733697      -4.68950686       6.65348008 
Pd     -4.32162297      -2.33713408       5.82179507 
Pd     -5.79343893      -7.04949899       4.99011006 
Pd     -1.45305098      -4.69712621       4.15842505 
Pd     -2.88733697      -2.34475343       3.32674004 
Pd     -4.35915293      -7.05711834       2.49505503 
Pd     -5.79343893      -4.70474556       1.66337002 
Pd     -1.45305098      -2.35237278       0.83168501 
Pd     -2.88733697       0.00000000       0.00000000 
C     -5.74640578      -6.55072066      12.29437880 
H     -4.85858618      -6.88601960      12.82582343 
H     -6.66647060      -6.92448448      12.74086613 
