49
Lattice="6.127995757178688 0.0 0.0 0.0 7.505231375514016 0.0 0.0 0.0 26.11067716162803" Properties=species:S:1:pos:R:3 pbc="T T T"
Ni      4.08799836       1.18997291      17.98752295 
Ni      3.99929664       3.72512330      18.06213069 
Ni      4.06065233       6.23971591      18.00308250 
Ni      2.04231958      -0.02668707      17.35141126 
Ni      2.02750492       2.47487927      17.44189707 
Ni      2.02040967       5.00439419      17.35314406 
Ni      0.01534686       1.24163529      16.70176609 
Ni     -0.02186874       3.74197125      16.71869789 
Ni      0.00092265       6.24559843      16.71369124 
Ni      4.10370383      -0.01418356      15.91551877 
Ni      4.09398522       2.49779690      15.93361137 
Ni      4.09874011       4.98265396      15.93455636 
Ni      2.03585388       1.25611402      15.23705130 
Ni      2.03249757       3.73394557      15.22834935 
Ni      2.03619383       6.23937249      15.21919166 
Ni      0.00990574      -0.00394863      14.50693667 
Ni     -0.00005264       2.49880832      14.51560153 
Ni      0.00166362       4.99569589      14.51895218 
Ni      4.08533050       1.25087190      13.77752981 
Ni      4.08533050       3.75261569      13.77752981 
Ni      4.08533050       6.25435948      13.77752981 
Ni      2.04266525       0.00000000      13.05533858 
Ni      2.04266525       2.50174379      13.05533858 
Ni      2.04266525       5.00348758      13.05533858 
Ni      0.00000000       1.25087190      12.33314735 
Ni      0.00000000       3.75261569      12.33314735 
Ni      0.00000000       6.25435948      12.33314735 
Ni      4.08533050       0.00000000      11.61095613 
Ni      4.08533050       2.50174379      11.61095613 
Ni      4.08533050       5.00348758      11.61095613 
Ni      2.04266525       1.25087190      10.88876490 
Ni      2.04266525       3.75261569      10.88876490 
Ni      2.04266525       6.25435948      10.88876490 
Ni      0.00000000       0.00000000      10.16657368 
Ni      0.00000000       2.50174379      10.16657368 
Ni      0.00000000       5.00348758      10.16657368 
Ni      4.08533050       1.25087190       9.44438245 
Ni      4.08533050       3.75261569       9.44438245 
Ni      4.08533050       6.25435948       9.44438245 
Ni      2.04266525       0.00000000       8.72219123 
Ni      2.04266525       2.50174379       8.72219123 
Ni      2.04266525       5.00348758       8.72219123 
Ni      0.00000000       1.25087190       8.00000000 
Ni      0.00000000       3.75261569       8.00000000 
Ni      0.00000000       6.25435948       8.00000000 
C      2.52054964       3.33705783      19.42404212 
H      3.36651086       3.24765499      20.12307837 
H      1.91991546       4.20022124      19.71242307 
H      1.90897077       2.43585689      19.58198870 
