34
Lattice="-5.774673946975337 0.0 0.0 -0.03752996377879758 -7.064737690855914 2.3638699909697887e-16 -2.174605810921756e-15 2.735223450450853e-15 28.27729033432464" Properties=species:S:1:pos:R:3 pbc="T T T"
Ag     -2.86801863      -4.75939785      11.65312024 
Ag     -4.28977319      -2.32307595      10.92391142 
Ag     -5.78334204      -7.04869990      10.13421153 
Ag     -1.43640108      -4.71870600       9.15608204 
Ag     -2.87680548      -2.35305891       8.34477852 
Ag     -4.34999239      -7.05134161       7.51917774 
Ag     -5.77467395      -4.68950686       6.65348008 
Ag     -1.43428600      -2.33713408       5.82179507 
Ag     -2.90610196      -7.04949899       4.99011006 
Ag     -4.34038795      -4.69712621       4.15842505 
Ag     -5.77467395      -2.34475343       3.32674004 
Ag     -1.47181596      -7.05711834       2.49505503 
Ag     -2.90610196      -4.70474556       1.66337002 
Ag     -4.34038795      -2.35237278       0.83168501 
Ag      0.00000000       0.00000000       0.00000000 
Pd     -5.74730797      -4.63140457      11.67073933 
Pd     -1.41333494      -2.36873358      10.83315807 
Pd     -2.87728923      -7.09271458      10.01236374 
Pd     -4.32525444      -4.71412669       9.18244450 
Pd     -5.75362321      -2.33208472       8.36485787 
Pd     -1.45017542      -7.05662530       7.50955616 
Pd     -2.88733697      -4.68950686       6.65348008 
Pd     -4.32162297      -2.33713408       5.82179507 
Pd     -5.79343893      -7.04949899       4.99011006 
Pd     -1.45305098      -4.69712621       4.15842505 
Pd     -2.88733697      -2.34475343       3.32674004 
Pd     -4.35915293      -7.05711834       2.49505503 
Pd     -5.79343893      -4.70474556       1.66337002 
Pd     -1.45305098      -2.35237278       0.83168501 
Pd     -2.88733697       0.00000000       0.00000000 
C     -5.75665171      -5.10759357      13.67525335 
H     -5.76307727      -6.19493310      13.72395748 
H     -4.86458695      -4.68778591      14.13573751 
H     -6.65646320      -4.67924577      14.11433777 
