94
Lattice="13.042342580993648 0.0 0.0 0.0 7.530000000000001 0.0 0.0 0.0 26.17805" Properties=species:S:1:pos:R:3 pbc="T T T"
Co      0.73981712       1.25137969      18.07288831 
Co      0.74206101       3.76499279      18.07079049 
Co      0.74044035       6.27782748      18.07246969 
Co      2.88131864       0.00053449      18.10922532 
Co      2.86079643       2.50241055      18.11074741 
Co      2.86134555       5.02793509      18.11074219 
Co      5.01241085       1.25483288      18.07792765 
Co      4.92678645       3.76579374      18.11905074 
Co      5.01185797       6.27783605      18.07769396 
Co     -0.05009194      -0.00032636      16.15134445 
Co     -0.04174753       2.50492036      16.15140799 
Co     -0.04261384       5.02399043      16.15131352 
Co      2.15127173       1.25386988      16.12989512 
Co      2.15457939       3.76511562      16.13054856 
Co      2.15151034       6.27523538      16.12983082 
Co      4.32328851      -0.00013269      16.12600631 
Co      4.33830959       2.51331028      16.13005752 
Co      4.33887159       5.01608075      16.12976635 
Co      6.52424118       1.22866482      16.16929138 
Co      6.55297189       3.76378318      16.25603742 
Co      6.52466098       6.29786437      16.16876802 
Co      8.68504648      -0.00079088      16.08775477 
Co      8.69631208       2.51588698      16.15079387 
Co      8.69731668       5.01125914      16.15036708 
Co     10.86363873       1.25053856      16.10158433 
Co     10.90087214       3.76381302      16.07953683 
Co     10.86389938       6.27817424      16.10138651 
Co      0.72457459       1.25500000      14.10683000 
Co      0.72457459       3.76500000      14.10683000 
Co      0.72457459       6.27500000      14.10683000 
Co      2.89829835      -0.00000000      14.10683000 
Co      2.89829835       2.51000000      14.10683000 
Co      2.89829835       5.02000000      14.10683000 
Co      5.07202211       1.25500000      14.10683000 
Co      5.07202211       3.76500000      14.10683000 
Co      5.07202211       6.27500000      14.10683000 
Co      7.23300118      -0.00044556      14.11527381 
Co      7.23270498       2.51253102      14.14737537 
Co      7.23306939       5.01622303      14.14736345 
Co      9.40339248       1.26000077      14.12397939 
Co      9.40243881       3.76437187      14.13574474 
Co      9.40350505       6.26893675      14.12342120 
Co     11.57977913       0.00001077      14.11143810 
Co     11.58425023       2.50676442      14.10657132 
Co     11.58401422       5.02262912      14.10645032 
Co      0.00000000       0.00000000      12.07122000 
Co      0.00000000       2.51000000      12.07122000 
Co      0.00000000       5.02000000      12.07122000 
Co      2.17372376       1.25500000      12.07122000 
Co      2.17372376       3.76500000      12.07122000 
Co      2.17372376       6.27500000      12.07122000 
Co      4.34744753      -0.00000000      12.07122000 
Co      4.34744753       2.51000000      12.07122000 
Co      4.34744753       5.02000000      12.07122000 
Co      6.52117129       1.25500000      12.07122000 
Co      6.52117129       3.76500000      12.07122000 
Co      6.52117129       6.27500000      12.07122000 
Co      8.69489505      -0.00000000      12.07122000 
Co      8.69489505       2.51000000      12.07122000 
Co      8.69489505       5.02000000      12.07122000 
Co     10.86861882       1.25500000      12.07122000 
Co     10.86861882       3.76500000      12.07122000 
Co     10.86861882       6.27500000      12.07122000 
Co      0.72457459       1.25500000      10.03561000 
Co      0.72457459       3.76500000      10.03561000 
Co      0.72457459       6.27500000      10.03561000 
Co      2.89829835      -0.00000000      10.03561000 
Co      2.89829835       2.51000000      10.03561000 
Co      2.89829835       5.02000000      10.03561000 
Co      5.07202211       1.25500000      10.03561000 
Co      5.07202211       3.76500000      10.03561000 
Co      5.07202211       6.27500000      10.03561000 
Co      7.24574588      -0.00000000      10.03561000 
Co      7.24574588       2.51000000      10.03561000 
Co      7.24574588       5.02000000      10.03561000 
Co      9.41946964       1.25500000      10.03561000 
Co      9.41946964       3.76500000      10.03561000 
Co      9.41946964       6.27500000      10.03561000 
Co     11.59319341      -0.00000000      10.03561000 
Co     11.59319341       2.51000000      10.03561000 
Co     11.59319341       5.02000000      10.03561000 
Co      6.52117129       1.25500000       8.00000000 
Co      6.52117129       3.76500000       8.00000000 
Co      6.52117129       6.27500000       8.00000000 
Co      8.69489505      -0.00000000       8.00000000 
Co      8.69489505       2.51000000       8.00000000 
Co      8.69489505       5.02000000       8.00000000 
Co     10.86861882       1.25500000       8.00000000 
Co     10.86861882       3.76500000       8.00000000 
Co     10.86861882       6.27500000       8.00000000 
C      8.29275624       3.76418459      17.87270989 
H      8.84180852       4.65223011      18.23145972 
H      7.33620004       3.75908861      18.41210630 
H      8.85093314       2.88313040      18.23374538 
