34
Lattice="-5.774673946975337 0.0 0.0 -0.03752996377879758 -7.064737690855914 2.3638699909697887e-16 -2.174605810921756e-15 2.735223450450853e-15 28.27729033432464" Properties=species:S:1:pos:R:3 pbc="T T T"
Ag     -2.90946161      -4.76141288      11.64793646 
Ag     -4.28882259      -2.33656132      10.86512419 
Ag     -5.76369671      -7.03486558      10.09272508 
Ag     -1.44388580      -4.69388206       9.15419846 
Ag     -2.86977417      -2.33971078       8.33384335 
Ag     -4.34486823      -7.04706801       7.50610586 
Ag     -5.77467395      -4.68950686       6.65348008 
Ag     -1.43428600      -2.33713408       5.82179507 
Ag     -2.90610196      -7.04949899       4.99011006 
Ag     -4.34038795      -4.69712621       4.15842505 
Ag     -5.77467395      -2.34475343       3.32674004 
Ag     -1.47181596      -7.05711834       2.49505503 
Ag     -2.90610196      -4.70474556       1.66337002 
Ag     -4.34038795      -2.35237278       0.83168501 
Ag      0.00000000       0.00000000       0.00000000 
Pd     -5.78922205      -4.62016642      11.57260081 
Pd     -1.41343831      -2.27979881      10.96417157 
Pd     -2.87133484      -7.07431867      10.00740865 
Pd     -4.32415002      -4.70178103       9.15056107 
Pd     -5.76395579      -2.32340245       8.35448332 
Pd     -1.44898582      -7.05184128       7.49976067 
Pd     -2.88733697      -4.68950686       6.65348008 
Pd     -4.32162297      -2.33713408       5.82179507 
Pd     -5.79343893      -7.04949899       4.99011006 
Pd     -1.45305098      -4.69712621       4.15842505 
Pd     -2.88733697      -2.34475343       3.32674004 
Pd     -4.35915293      -7.05711834       2.49505503 
Pd     -5.79343893      -4.70474556       1.66337002 
Pd     -1.45305098      -2.35237278       0.83168501 
Pd     -2.88733697       0.00000000       0.00000000 
C     -7.22874952      -8.70298986      12.93358662 
H     -7.22057266      -9.58833352      13.56501591 
H     -6.33425066      -8.10260121      13.08061356 
H     -8.12766854      -8.11105488      13.08570326 
