49
Lattice="7.310986458748231 0.0 0.0 0.0 8.954093170165251 0.0 0.0 0.0 28.06251223833576" Properties=species:S:1:pos:R:3 pbc="T T T"
Ag      4.89842478       1.49241441      19.92274166 
Ag      4.95159666       4.49176577      19.91740015 
Ag      4.95149175       7.44678186      19.91725579 
Ag      2.46173354       0.03618534      19.27288221 
Ag      2.46174808       2.94877684      19.27263471 
Ag      2.50325289       5.96923742      19.19074823 
Ag      0.01424729       1.49233834      18.36659093 
Ag      0.09559825       4.47212199      18.36574076 
Ag      0.09563357       7.46657868      18.36568685 
Ag      4.93713716      -0.00433956      17.43476444 
Ag      4.93729881       2.98910901      17.43455459 
Ag      4.96598166       5.96929740      17.42940019 
Ag      2.44159193       1.49236030      16.61848616 
Ag      2.46916197       4.45547678      16.64393020 
Ag      2.46905556       7.48326470      16.64422326 
Ag      0.02425059      -0.00332177      15.73399552 
Ag      0.02441267       2.98801027      15.73397393 
Ag      0.03210128       5.96935692      15.73002275 
Ag      4.87399097       1.49234886      14.89286414 
Ag      4.87399097       4.47704659      14.89286414 
Ag      4.87399097       7.46174431      14.89286414 
Ag      2.43699549       0.00000000      14.03125612 
Ag      2.43699549       2.98469772      14.03125612 
Ag      2.43699549       5.96939545      14.03125612 
Ag      0.00000000       1.49234886      13.16964810 
Ag      0.00000000       4.47704659      13.16964810 
Ag      0.00000000       7.46174431      13.16964810 
Ag      4.87399097       0.00000000      12.30804009 
Ag      4.87399097       2.98469772      12.30804009 
Ag      4.87399097       5.96939545      12.30804009 
Ag      2.43699549       1.49234886      11.44643207 
Ag      2.43699549       4.47704659      11.44643207 
Ag      2.43699549       7.46174431      11.44643207 
Ag      0.00000000       0.00000000      10.58482405 
Ag      0.00000000       2.98469772      10.58482405 
Ag      0.00000000       5.96939545      10.58482405 
Ag      4.87399097       1.49234886       9.72321603 
Ag      4.87399097       4.47704659       9.72321603 
Ag      4.87399097       7.46174431       9.72321603 
Ag      2.43699549       0.00000000       8.86160802 
Ag      2.43699549       2.98469772       8.86160802 
Ag      2.43699549       5.96939545       8.86160802 
Ag      0.00000000       1.49234886       8.00000000 
Ag      0.00000000       4.47704659       8.00000000 
Ag      0.00000000       7.46174431       8.00000000 
C      2.52747024       1.49231790      21.43833165 
H      1.44694524       1.49236674      21.54603585 
H      2.94787571       0.60696308      21.91036693 
H      2.94788906       2.37770945      21.91020703 
