49
Lattice="7.310986458748231 0.0 0.0 0.0 8.954093170165251 0.0 0.0 0.0 28.06251223833576" Properties=species:S:1:pos:R:3 pbc="T T T"
Ag      4.89258635       1.48565447      19.93062717 
Ag      4.99614320       4.47701035      19.93266000 
Ag      4.89254380       7.46832863      19.93061786 
Ag      2.46359243      -0.00005496      19.18519878 
Ag      2.44639610       3.04909961      19.27443262 
Ag      2.44629085       5.90477239      19.27464063 
Ag      0.05375722       1.48716506      18.36038201 
Ag      0.03576018       4.47701817      18.28399985 
Ag      0.05370331       7.46685208      18.36044792 
Ag      4.93192089      -0.00003082      17.43047697 
Ag      4.91504833       2.98301827      17.44914924 
Ag      4.91505074       5.97102101      17.44910133 
Ag      2.45482066       1.52072228      16.65064528 
Ag      2.45644499       4.47700798      16.58812218 
Ag      2.45483997       7.43328141      16.65065262 
Ag      0.02879944      -0.00002730      15.73251230 
Ag      0.01653970       2.97642080      15.73209139 
Ag      0.01655522       5.97766238      15.73207467 
Ag      4.87399097       1.49234886      14.89286414 
Ag      4.87399097       4.47704659      14.89286414 
Ag      4.87399097       7.46174431      14.89286414 
Ag      2.43699549       0.00000000      14.03125612 
Ag      2.43699549       2.98469772      14.03125612 
Ag      2.43699549       5.96939545      14.03125612 
Ag      0.00000000       1.49234886      13.16964810 
Ag      0.00000000       4.47704659      13.16964810 
Ag      0.00000000       7.46174431      13.16964810 
Ag      4.87399097       0.00000000      12.30804009 
Ag      4.87399097       2.98469772      12.30804009 
Ag      4.87399097       5.96939545      12.30804009 
Ag      2.43699549       1.49234886      11.44643207 
Ag      2.43699549       4.47704659      11.44643207 
Ag      2.43699549       7.46174431      11.44643207 
Ag      0.00000000       0.00000000      10.58482405 
Ag      0.00000000       2.98469772      10.58482405 
Ag      0.00000000       5.96939545      10.58482405 
Ag      4.87399097       1.49234886       9.72321603 
Ag      4.87399097       4.47704659       9.72321603 
Ag      4.87399097       7.46174431       9.72321603 
Ag      2.43699549       0.00000000       8.86160802 
Ag      2.43699549       2.98469772       8.86160802 
Ag      2.43699549       5.96939545       8.86160802 
Ag      0.00000000       1.49234886       8.00000000 
Ag      0.00000000       4.47704659       8.00000000 
Ag      0.00000000       7.46174431       8.00000000 
C      1.79102933       4.47722529      21.21639528 
H      2.63750862       4.47691169      21.89485051 
H      1.17001843       5.35644309      21.38383907 
H      1.16994429       3.59778737      21.38321677 
