49
Lattice="7.310986458748231 0.0 0.0 0.0 8.954093170165251 0.0 0.0 0.0 28.06251223833576" Properties=species:S:1:pos:R:3 pbc="T T T"
Ag      4.86650358       1.48011973      19.93939411 
Ag      4.88105308       4.47682805      20.06467521 
Ag      4.86634001       7.47424996      19.93907392 
Ag      2.44143169      -0.00005298      19.17456128 
Ag      2.44372066       2.98566670      19.15102234 
Ag      2.44372943       5.96848091      19.15095164 
Ag      0.03481257       1.48867399      18.36345704 
Ag      0.03196522       4.47705953      18.36173009 
Ag      0.03472063       7.46532462      18.36345817 
Ag      4.92361714       0.00002404      17.44918636 
Ag      4.91804078       3.00758152      17.45991475 
Ag      4.91800990       5.94648009      17.45998520 
Ag      2.44564236       1.48948453      16.59379590 
Ag      2.45039204       4.47701647      16.60189488 
Ag      2.44557650       7.46456827      16.59369968 
Ag      0.00658797       0.00000941      15.73275857 
Ag      0.00913600       2.98437935      15.73711661 
Ag      0.00909914       5.96969671      15.73710393 
Ag      4.87399097       1.49234886      14.89286414 
Ag      4.87399097       4.47704659      14.89286414 
Ag      4.87399097       7.46174431      14.89286414 
Ag      2.43699549       0.00000000      14.03125612 
Ag      2.43699549       2.98469772      14.03125612 
Ag      2.43699549       5.96939545      14.03125612 
Ag      0.00000000       1.49234886      13.16964810 
Ag      0.00000000       4.47704659      13.16964810 
Ag      0.00000000       7.46174431      13.16964810 
Ag      4.87399097       0.00000000      12.30804009 
Ag      4.87399097       2.98469772      12.30804009 
Ag      4.87399097       5.96939545      12.30804009 
Ag      2.43699549       1.49234886      11.44643207 
Ag      2.43699549       4.47704659      11.44643207 
Ag      2.43699549       7.46174431      11.44643207 
Ag      0.00000000       0.00000000      10.58482405 
Ag      0.00000000       2.98469772      10.58482405 
Ag      0.00000000       5.96939545      10.58482405 
Ag      4.87399097       1.49234886       9.72321603 
Ag      4.87399097       4.47704659       9.72321603 
Ag      4.87399097       7.46174431       9.72321603 
Ag      2.43699549       0.00000000       8.86160802 
Ag      2.43699549       2.98469772       8.86160802 
Ag      2.43699549       5.96939545       8.86160802 
Ag      0.00000000       1.49234886       8.00000000 
Ag      0.00000000       4.47704659       8.00000000 
Ag      0.00000000       7.46174431       8.00000000 
C      5.39982332       4.47719096      22.19676829 
H      6.48587876       4.47733699      22.24011403 
H      4.98236456       5.37177822      22.65040638 
H      4.98265122       3.58227556      22.65001963 
