49
Lattice="6.145316265254376 0.0 0.0 0.0 7.5264445789496115 0.0 0.0 0.0 26.1392545419605" Properties=species:S:1:pos:R:3 pbc="T T T"
Co      4.09002913       1.24042417      18.02285630 
Co      4.09969560       3.76282621      18.01914674 
Co      4.09032521       6.28691514      18.02241639 
Co      2.06991903      -0.00005661      17.34475529 
Co      2.06195253       2.51088350      17.41721686 
Co      2.06187446       5.01633493      17.41709473 
Co      0.00358101       1.23713964      16.71965264 
Co      0.01447567       3.76328107      16.77170552 
Co      0.00351514       6.28914444      16.71927685 
Co      4.10424970       0.00016065      15.94737411 
Co      4.10909205       2.50765606      15.95783839 
Co      4.10897530       5.01923824      15.95870368 
Co      2.05818748       1.26125496      15.24619953 
Co      2.06101894       3.76378208      15.26352393 
Co      2.05883506       6.26503379      15.24609969 
Co      0.01018237      -0.00028316      14.53666878 
Co      0.00928833       2.51536864      14.54931594 
Co      0.00928978       5.01167683      14.55077205 
Co      4.09687751       1.25440743      13.79385974 
Co      4.09687751       3.76322229      13.79385974 
Co      4.09687751       6.27203715      13.79385974 
Co      2.04843876       0.00000000      13.06962727 
Co      2.04843876       2.50881486      13.06962727 
Co      2.04843876       5.01762972      13.06962727 
Co      0.00000000       1.25440743      12.34539480 
Co      0.00000000       3.76322229      12.34539480 
Co      0.00000000       6.27203715      12.34539480 
Co      4.09687751       0.00000000      11.62116234 
Co      4.09687751       2.50881486      11.62116234 
Co      4.09687751       5.01762972      11.62116234 
Co      2.04843876       1.25440743      10.89692987 
Co      2.04843876       3.76322229      10.89692987 
Co      2.04843876       6.27203715      10.89692987 
Co      0.00000000       0.00000000      10.17269740 
Co      0.00000000       2.50881486      10.17269740 
Co      0.00000000       5.01762972      10.17269740 
Co      4.09687751       1.25440743       9.44846493 
Co      4.09687751       3.76322229       9.44846493 
Co      4.09687751       6.27203715       9.44846493 
Co      2.04843876       0.00000000       8.72423247 
Co      2.04843876       2.50881486       8.72423247 
Co      2.04843876       5.01762972       8.72423247 
Co      0.00000000       1.25440743       8.00000000 
Co      0.00000000       3.76322229       8.00000000 
Co      0.00000000       6.27203715       8.00000000 
C      1.12259886       3.76301026      18.94776384 
H      0.03655206       3.76281454      19.11030436 
H      1.51239391       2.87986165      19.47620655 
H      1.51221884       4.64627855      19.47619678 
