94
Lattice="13.042342580993648 0.0 0.0 0.0 7.530000000000001 0.0 0.0 0.0 26.17805" Properties=species:S:1:pos:R:3 pbc="T T T"
Co      0.74549106       1.24983122      18.06965942 
Co      0.74335032       3.76488491      18.06819429 
Co      0.74537757       6.28028162      18.06959734 
Co      2.88955761      -0.00000947      18.10269747 
Co      2.86015658       2.50071980      18.10687435 
Co      2.86010765       5.02917607      18.10684726 
Co      5.01905007       1.25513896      18.07425526 
Co      4.92090293       3.76494925      18.12290667 
Co      5.01881106       6.27481510      18.07433751 
Co     -0.04852945      -0.00006007      16.14899982 
Co     -0.04111821       2.50479559      16.14998062 
Co     -0.04120037       5.02518347      16.14990638 
Co      2.15314068       1.25353046      16.12560694 
Co      2.15577663       3.76488564      16.12861719 
Co      2.15318680       6.27646111      16.12560906 
Co      4.32719337      -0.00011627      16.12271581 
Co      4.33993780       2.51378874      16.12947255 
Co      4.33990026       5.01621141      16.12953791 
Co      6.52872351       1.23124126      16.16548754 
Co      6.55473232       3.76502798      16.26072875 
Co      6.52854892       6.29870088      16.16558599 
Co      8.68682580      -0.00002342      16.08727062 
Co      8.70178339       2.51838336      16.15460289 
Co      8.70161967       5.01139933      16.15561231 
Co     10.86563118       1.25149220      16.10130079 
Co     10.90192661       3.76499619      16.08097319 
Co     10.86546174       6.27844275      16.10116529 
Co      0.72457459       1.25500000      14.10683000 
Co      0.72457459       3.76500000      14.10683000 
Co      0.72457459       6.27500000      14.10683000 
Co      2.89829835      -0.00000000      14.10683000 
Co      2.89829835       2.51000000      14.10683000 
Co      2.89829835       5.02000000      14.10683000 
Co      5.07202211       1.25500000      14.10683000 
Co      5.07202211       3.76500000      14.10683000 
Co      5.07202211       6.27500000      14.10683000 
Co      7.23401140      -0.00000490      14.11328899 
Co      7.23378866       2.51415093      14.14929553 
Co      7.23404458       5.01580058      14.14927665 
Co      9.40396699       1.26030551      14.12449070 
Co      9.40297734       3.76510418      14.13680749 
Co      9.40389237       6.26955081      14.12464036 
Co     11.58083732      -0.00001508      14.11014270 
Co     11.58573133       2.50679123      14.10696816 
Co     11.58573453       5.02315752      14.10701653 
Co      0.00000000       0.00000000      12.07122000 
Co      0.00000000       2.51000000      12.07122000 
Co      0.00000000       5.02000000      12.07122000 
Co      2.17372376       1.25500000      12.07122000 
Co      2.17372376       3.76500000      12.07122000 
Co      2.17372376       6.27500000      12.07122000 
Co      4.34744753      -0.00000000      12.07122000 
Co      4.34744753       2.51000000      12.07122000 
Co      4.34744753       5.02000000      12.07122000 
Co      6.52117129       1.25500000      12.07122000 
Co      6.52117129       3.76500000      12.07122000 
Co      6.52117129       6.27500000      12.07122000 
Co      8.69489505      -0.00000000      12.07122000 
Co      8.69489505       2.51000000      12.07122000 
Co      8.69489505       5.02000000      12.07122000 
Co     10.86861882       1.25500000      12.07122000 
Co     10.86861882       3.76500000      12.07122000 
Co     10.86861882       6.27500000      12.07122000 
Co      0.72457459       1.25500000      10.03561000 
Co      0.72457459       3.76500000      10.03561000 
Co      0.72457459       6.27500000      10.03561000 
Co      2.89829835      -0.00000000      10.03561000 
Co      2.89829835       2.51000000      10.03561000 
Co      2.89829835       5.02000000      10.03561000 
Co      5.07202211       1.25500000      10.03561000 
Co      5.07202211       3.76500000      10.03561000 
Co      5.07202211       6.27500000      10.03561000 
Co      7.24574588      -0.00000000      10.03561000 
Co      7.24574588       2.51000000      10.03561000 
Co      7.24574588       5.02000000      10.03561000 
Co      9.41946964       1.25500000      10.03561000 
Co      9.41946964       3.76500000      10.03561000 
Co      9.41946964       6.27500000      10.03561000 
Co     11.59319341      -0.00000000      10.03561000 
Co     11.59319341       2.51000000      10.03561000 
Co     11.59319341       5.02000000      10.03561000 
Co      6.52117129       1.25500000       8.00000000 
Co      6.52117129       3.76500000       8.00000000 
Co      6.52117129       6.27500000       8.00000000 
Co      8.69489505      -0.00000000       8.00000000 
Co      8.69489505       2.51000000       8.00000000 
Co      8.69489505       5.02000000       8.00000000 
Co     10.86861882       1.25500000       8.00000000 
Co     10.86861882       3.76500000       8.00000000 
Co     10.86861882       6.27500000       8.00000000 
C      8.30399072       3.76491817      17.88017755 
H      7.33749159       3.76542497      18.40219611 
H      8.85033136       2.88088760      18.24984610 
H      8.85151199       4.64956316      18.24947704 
